# MIN/wB97XD/Def2SVP

0 1
Rh         0.021777277146          0.035514434106         -2.476883603936
C          1.014330284112          1.535821930562         -3.170644077302
C         -1.773474381243          0.787259728091         -2.678406863471
C         -0.323512141304         -1.684547498530         -3.276248349994
O          1.660329524555          2.386356806156         -3.577262961639
O         -2.817644192547          1.224974961563         -2.808015777214
O         -0.460736456034         -2.717833042971         -3.744876680731
H          1.485427837996         -0.574658467646         -2.399795089048
P          0.008236949887         -0.036642896296         -0.040757351618
Cl        -1.225374507899         -0.991987580970          0.608964077003
Cl         1.414151941468         -0.636207355461          0.679311216328
Cl        -0.214525816127          1.472318801397          0.687263581628
Options
GauProc=16
GauMem=800
EigenCheck
MinFreqValue=50.0
@@SubAddExPot@@
MaxOptItr=999



