# MIN/wB97XD/Def2SVP

0 1
Rh         0.009206273592         -0.043883281879         -2.293011470470
C          1.894498451324          0.349993178294         -2.524365635523
C         -1.282333456220          1.382872146516         -2.536243576788
C         -0.587883964934         -1.883062113127         -2.449019041404
O          2.994769488261          0.577519974209         -2.733071179300
O         -2.036563848475          2.213866563372         -2.751965902868
O         -0.937130119291         -2.958791030089         -2.612604242141
H          0.000765292950         -0.085924809471         -3.875192173268
P          0.021042300205          0.023010194180          0.112931577535
Cl         0.495065006382          1.506617846211          0.767541050857
Cl        -1.479607353146         -0.281741728913          0.826695127922
Cl         1.057317239344         -1.097220429298          0.837875285464
Options
GauProc=16
GauMem=800
EigenCheck
MinFreqValue=50.0
@@SubAddExPot@@
MaxOptItr=999



