# MIN/wB97XD/Def2SVP

0 1
Pd         0.000757242612          0.000545211329         -2.382645715262
P          2.238303636535         -0.120528423435         -3.110505793807
H          2.829792088860          0.873471130315         -3.942302021412
H          3.325111985437         -0.138718514544         -2.187075532474
H          2.736509362073         -1.213801038844         -3.876211528331
P         -1.220883120812         -1.877591004800         -3.111831264548
H         -1.767097559645         -2.817122837216         -2.188354005473
H         -2.423684172738         -1.765165957454         -3.867044238971
H         -0.657568221595         -2.879729398377         -3.953396971423
P         -1.012882910608          1.998864241210         -3.110888269533
H         -1.530279690464          2.953464591627         -2.186331525174
H         -0.319770522068          2.972458398292         -3.886323034739
H         -2.176694826999          2.013761344918         -3.932700202442
P         -0.003866810430          0.000584088207          0.048280157310
Cl        -1.526869017686          0.233201948361          0.745596956380
Cl         0.553512532477         -1.432581054220          0.751983250537
Cl         0.955927465037          1.201977274623          0.752041449354
Options
GauProc=16
GauMem=800
EigenCheck
MinFreqValue=50.0
@@SubAddExPot@@
MaxOptItr=999


