# MIN/wB97XD/Def2SVP

-1 1
Pd         0.518341858594         -0.775834148467         -0.669522241176
O          0.261091172266         -2.819714035437         -0.675511526200
C          1.390310161955         -2.997156482889         -1.346843909389
O          1.852695071379         -4.075508457344         -1.658280222778
O          1.964215539647         -1.827782523789         -1.638510070609
C          1.250387212918          1.090351122687         -0.920873825934
C          2.168202025208          1.670825933916         -0.023310366404
C          0.945435498741          1.821572656081         -2.083436614448
C          2.758103791875          2.911175698744         -0.296105982672
C          1.527130326448          3.059810486157         -2.354224216249
H          0.246541685171          1.398131464626         -2.811612704118
C          2.442901546522          3.610585352433         -1.457261709262
H          3.485835395239          3.319222383039          0.411609413025
H          1.273992888628          3.592414820383         -3.276146369210
H          2.913502247679          4.575530651494         -1.664693117688
C          4.455844495754         -0.645917311101         -0.005726897144
C          5.467082753897         -1.414665014283         -0.582966814475
C          4.787876424354          0.297687640457          0.972868005668
C          6.800601017139         -1.252279381273         -0.213271707486
H          5.171712444215         -2.149812441608         -1.335276008544
C          6.128608154869          0.470576215270          1.346576934647
C          7.124620103181         -0.299679380124          0.756072714518
H          7.582406421188         -1.860091412119         -0.674871726078
H          6.361344943579          1.216545580058          2.109633566669
H          8.165541847075         -0.155041889658          1.058979999563
H          3.436069546718         -0.822820637063         -0.356327054093
O          3.889016562210          1.074037136298          1.627986896467
C          2.523602759995          0.975025787616          1.276508997104
H          2.205074382416         -0.080087661775          1.238894312586
H          1.987545474259          1.449484179779          2.115488245095
Cl        -1.025956210865         -0.914980427402          2.159650188820
Cl        -2.654871504071         -0.985097139301          0.051343454098
Cl        -1.723389011299          1.347938005510          0.938462387723
P         -1.248840666871         -0.243326350916          0.624751177964
Options
@@SubAddExPot@@
GauProc=32
GauMem=1600
MinFreqValue=50.0
EigenCheck
