# MIN/wB97XD/Def2SVP

0 1
Au                 0.00000000    0.00000000   -2.28628621
Cl                -0.00013303   -0.00005312   -4.57930784
P                  0.00000000    0.00000000    0.00000000
Cl                -0.61202265    1.82334979    0.68001749
Cl                -1.27093700   -1.44213982    0.68304603
Cl                 1.88651438   -0.38003461    0.67693218
Options
GauProc=16
GauMem=800
EigenCheck
MinFreqValue=50.0
@@SubAddExPot@@
MaxOptITR=999

