# MIN/wB97XD/Def2SVP

0 1
B                 -0.00000000   -0.00000000   -1.90099213
H                  0.59137224    1.02795844   -2.20140643
H                  0.59471957   -1.02632876   -2.20045503
H                 -1.18604560   -0.00223758   -2.20098395
P                  0.00000000    0.00000000    0.00000000
Cl                -0.95042073   -1.67208751    0.68001749
Cl                 1.92219362    0.01482605    0.68304603
Cl                -0.97501946    1.65912624    0.67693218
Options
GauProc=16
GauMem=800
EigenCheck
MinFreqValue=50.0
@@SubAddExPot@@
MaxOptITR=999

