# MIN/wB97XD/Def2SVP

1 1
H                 -0.00000000   -0.00000000   -1.34999999
P                  0.00000000    0.00000000    0.00000000
Cl                -0.92345739    1.68712852    0.68001749
Cl                -0.99720457   -1.64335971    0.68304603
Cl                 1.92395426   -0.04198600    0.67693218
Options
GauProc=16
GauMem=800
EigenCheck
MinFreqValue=50.0
@@SubAddExPot@@
MaxOptITR=999

