# MIN/wB97XD/Def2SVP

0 1
Ir                 0.00000000   -0.00000000   -2.42412088
C                 -0.55877812    1.75733663   -2.53116601
C                  0.04044599   -0.17456293   -4.31986110
O                 -0.89167639    2.85206380   -2.62471071
O                  0.06707933   -0.30402706   -5.45034966
Cl                 0.79683988   -2.25540982   -2.29761116
P                  0.00000000    0.00000000    0.00000000
Cl                -1.73142712    0.83745825    0.68001749
Cl                 0.14224804   -1.91698033    0.68304603
Cl                 1.59082449    1.08288516    0.67693218
Options
GauProc=16
GauMem=800
EigenCheck
MinFreqValue=50.0
@@SubAddExPot@@
MaxOptITR=999

