# MIN/wB97XD/Def2SVP

-1 1
Pd                -0.00000000   -0.00000000   -2.27187628
Cl                -2.15317524    0.90998908   -2.32238977
Cl                 0.12922053   -0.05729261   -4.60885352
Cl                 2.16432531   -0.91473100   -1.99812300
P                  0.00000000    0.00000000    0.00000000
Cl                 1.52449169    1.17264713    0.68001749
Cl                -1.77751162    0.73177903    0.68304603
Cl                 0.25528924   -1.90740405    0.67693218
Options
GauProc=16
GauMem=800
EigenCheck
MinFreqValue=50.0
@@SubAddExPot@@
MaxOptITR=999

