# MIN/wB97XD/Def2SVP

-1 1
Pt                 0.00000000    0.00000000   -2.23839512
Cl                 2.27381143   -0.59093051   -2.34828395
Cl                -2.29374295    0.59920196   -2.03956387
Cl                -0.13240025    0.03296548   -4.60424566
P                  0.00000000    0.00000000    0.00000000
Cl                -1.47111788   -1.23894648    0.68001749
Cl                 1.80814697   -0.65242061    0.68304603
Cl                -0.33942793    1.89424167    0.67693218
Options
GauProc=16
GauMem=800
EigenCheck
MinFreqValue=50.0
@@SubAddExPot@@
MaxOptITR=999

