# MIN/wB97XD/Def2SVP

0 1
Pt                -0.00000000    0.00000000   -2.34000000
P                  2.19686500   -0.20244822   -3.11999930
H                  2.19686472   -0.20245135   -4.46999930
H                  2.93172402    0.83677452   -2.67000119
H                  2.72942785   -1.35846489   -2.66999679
P                 -1.27375695   -1.80131657   -3.12000118
H                 -0.74105315   -2.95734759   -2.67020237
H                 -2.54111957   -1.68464866   -2.66980052
H                 -1.27395762   -1.80117413   -4.47000115
P                 -0.92310712    2.00376480   -3.11999991
H                 -2.19053219    2.12055699   -2.67000738
H                 -0.18825191    3.04298611   -2.66999225
H                 -0.92309884    2.00376896   -4.46999991
P                  0.00000000    0.00000000    0.00000000
Cl                -1.91437400    0.18533317    0.68001749
Cl                 0.79794811   -1.74880729    0.68304603
Cl                 1.11680347    1.56719904    0.67693218
Options
GauProc=16
GauMem=800
EigenCheck
MinFreqValue=50.0
@@SubAddExPot@@
MaxOptITR=999

