# MIN/wB97XD/Def2SVP

0 1
Rh                 0.00000000    0.00000000   -2.28193108
C                  1.81883982   -0.61213673   -2.48391432
C                 -1.82417837    0.62277398   -2.38749994
O                  2.88009292   -0.96778003   -2.66902853
O                 -2.88958464    0.98795375   -2.52724599
Cl                -0.04400626    0.01293723   -4.64635059
P                  0.00000000    0.00000000    0.00000000
Cl                -1.47111788   -1.23894648    0.68001749
Cl                 1.80814697   -0.65242061    0.68304603
Cl                -0.33942793    1.89424167    0.67693218
Options
GauProc=16
GauMem=800
EigenCheck
MinFreqValue=50.0
@@SubAddExPot@@
MaxOptITR=999

