# MIN/wB97XD/Def2SVP

0 1
Rh                -0.00000000   -0.00000000   -2.44081725
C                  1.04049066    1.47443338   -3.11869808
C                 -1.79104865    0.76062691   -2.62854735
C                 -0.32808328   -1.67550736   -3.33576875
O                  1.70998448    2.30428441   -3.53046516
O                 -2.83737171    1.20459605   -2.70158772
O                 -0.46128372   -2.66917965   -3.88625791
H                  1.45828852   -0.60126855   -2.24750262
P                  0.00000000    0.00000000    0.00000000
Cl                -1.22037632   -1.02777688    0.56411335
Cl                 1.49996120   -0.54122016    0.56662570
Cl                -0.28157486    1.57138167    0.56155391
Options
GauProc=16
GauMem=800
EigenCheck
MinFreqValue=50.0
SubAddExPot=xxx/yyy/VL_main.py
MaxOptItr=999